Circuit: * C:\Users\diana\Desktop\UniversityITMO\Digital Design\lab 1\part_1\adder4_main.asc

WARNING: Node X1:X6:X1:N002 is floating.
WARNING: Node X1:X6:X1:N003 is floating.
WARNING: Node X1:X6:X2:N002 is floating.
WARNING: Node X1:X6:X2:N003 is floating.
WARNING: Node X1:X6:X3:N002 is floating.
WARNING: Node X1:X6:X3:N003 is floating.
WARNING: Node X1:X6:X4:N002 is floating.
WARNING: Node X1:X6:X4:N003 is floating.
WARNING: Node X1:X6:X5:N002 is floating.
WARNING: Node X1:X6:X5:N003 is floating.
WARNING: Node X1:X6:X6:N002 is floating.
WARNING: Node X1:X6:X6:N003 is floating.
WARNING: Node X1:X6:X7:N002 is floating.
WARNING: Node X1:X6:X7:N003 is floating.
WARNING: Node X1:X6:X8:N002 is floating.
WARNING: Node X1:X6:X8:N003 is floating.
WARNING: Node X1:X6:X9:N002 is floating.
WARNING: Node X1:X6:X9:N003 is floating.
WARNING: Node X1:X7:X1:N002 is floating.
WARNING: Node X1:X7:X1:N003 is floating.
WARNING: Node X1:X7:X2:N002 is floating.
WARNING: Node X1:X7:X2:N003 is floating.
WARNING: Node X1:X7:X3:N002 is floating.
WARNING: Node X1:X7:X3:N003 is floating.
WARNING: Node X1:X7:X4:N002 is floating.
WARNING: Node X1:X7:X4:N003 is floating.
WARNING: Node X1:X7:X5:N002 is floating.
WARNING: Node X1:X7:X5:N003 is floating.
WARNING: Node X1:X7:X6:N002 is floating.
WARNING: Node X1:X7:X6:N003 is floating.
WARNING: Node X1:X7:X7:N002 is floating.
WARNING: Node X1:X7:X7:N003 is floating.
WARNING: Node X1:X7:X8:N002 is floating.
WARNING: Node X1:X7:X8:N003 is floating.
WARNING: Node X1:X7:X9:N002 is floating.
WARNING: Node X1:X7:X9:N003 is floating.
WARNING: Node X1:X8:X1:N002 is floating.
WARNING: Node X1:X8:X1:N003 is floating.
WARNING: Node X1:X8:X2:N002 is floating.
WARNING: Node X1:X8:X2:N003 is floating.
WARNING: Node X1:X8:X3:N002 is floating.
WARNING: Node X1:X8:X3:N003 is floating.
WARNING: Node X1:X8:X4:N002 is floating.
WARNING: Node X1:X8:X4:N003 is floating.
WARNING: Node X1:X8:X5:N002 is floating.
WARNING: Node X1:X8:X5:N003 is floating.
WARNING: Node X1:X8:X6:N002 is floating.
WARNING: Node X1:X8:X6:N003 is floating.
WARNING: Node X1:X8:X7:N002 is floating.
WARNING: Node X1:X8:X7:N003 is floating.
WARNING: Node X1:X8:X8:N002 is floating.
WARNING: Node X1:X8:X8:N003 is floating.
WARNING: Node X1:X8:X9:N002 is floating.
WARNING: Node X1:X8:X9:N003 is floating.
WARNING: Node X1:X9:X1:N002 is floating.
WARNING: Node X1:X9:X1:N003 is floating.
WARNING: Node X1:X9:X2:N002 is floating.
WARNING: Node X1:X9:X2:N003 is floating.
WARNING: Node X1:X9:X3:N002 is floating.
WARNING: Node X1:X9:X3:N003 is floating.
WARNING: Node X1:X9:X4:N002 is floating.
WARNING: Node X1:X9:X4:N003 is floating.
WARNING: Node X1:X9:X5:N002 is floating.
WARNING: Node X1:X9:X5:N003 is floating.
WARNING: Node X1:X9:X6:N002 is floating.
WARNING: Node X1:X9:X6:N003 is floating.
WARNING: Node X1:X9:X7:N002 is floating.
WARNING: Node X1:X9:X7:N003 is floating.
WARNING: Node X1:X9:X8:N002 is floating.
WARNING: Node X1:X9:X8:N003 is floating.
WARNING: Node X1:X9:X9:N002 is floating.
WARNING: Node X1:X9:X9:N003 is floating.

WARNING: Less than two connections to node X1:X6:X1:N002.  This node is used by M:X1:X6:X1:3.
WARNING: Less than two connections to node X1:X6:X1:N003.  This node is used by M:X1:X6:X1:4.
WARNING: Less than two connections to node X1:X6:X2:N002.  This node is used by M:X1:X6:X2:3.
WARNING: Less than two connections to node X1:X6:X2:N003.  This node is used by M:X1:X6:X2:4.
WARNING: Less than two connections to node X1:X6:X3:N002.  This node is used by M:X1:X6:X3:3.
WARNING: Less than two connections to node X1:X6:X3:N003.  This node is used by M:X1:X6:X3:4.
WARNING: Less than two connections to node X1:X6:X4:N002.  This node is used by M:X1:X6:X4:3.
WARNING: Less than two connections to node X1:X6:X4:N003.  This node is used by M:X1:X6:X4:4.
WARNING: Less than two connections to node X1:X6:X5:N002.  This node is used by M:X1:X6:X5:3.
WARNING: Less than two connections to node X1:X6:X5:N003.  This node is used by M:X1:X6:X5:4.
WARNING: Less than two connections to node X1:X6:X6:N002.  This node is used by M:X1:X6:X6:3.
WARNING: Less than two connections to node X1:X6:X6:N003.  This node is used by M:X1:X6:X6:4.
WARNING: Less than two connections to node X1:X6:X7:N002.  This node is used by M:X1:X6:X7:3.
WARNING: Less than two connections to node X1:X6:X7:N003.  This node is used by M:X1:X6:X7:4.
WARNING: Less than two connections to node X1:X6:X8:N002.  This node is used by M:X1:X6:X8:3.
WARNING: Less than two connections to node X1:X6:X8:N003.  This node is used by M:X1:X6:X8:4.
WARNING: Less than two connections to node X1:X6:X9:N002.  This node is used by M:X1:X6:X9:3.
WARNING: Less than two connections to node X1:X6:X9:N003.  This node is used by M:X1:X6:X9:4.
WARNING: Less than two connections to node X1:X7:X1:N002.  This node is used by M:X1:X7:X1:3.
WARNING: Less than two connections to node X1:X7:X1:N003.  This node is used by M:X1:X7:X1:4.
WARNING: Less than two connections to node X1:X7:X2:N002.  This node is used by M:X1:X7:X2:3.
WARNING: Less than two connections to node X1:X7:X2:N003.  This node is used by M:X1:X7:X2:4.
WARNING: Less than two connections to node X1:X7:X3:N002.  This node is used by M:X1:X7:X3:3.
WARNING: Less than two connections to node X1:X7:X3:N003.  This node is used by M:X1:X7:X3:4.
WARNING: Less than two connections to node X1:X7:X4:N002.  This node is used by M:X1:X7:X4:3.
WARNING: Less than two connections to node X1:X7:X4:N003.  This node is used by M:X1:X7:X4:4.
WARNING: Less than two connections to node X1:X7:X5:N002.  This node is used by M:X1:X7:X5:3.
WARNING: Less than two connections to node X1:X7:X5:N003.  This node is used by M:X1:X7:X5:4.
WARNING: Less than two connections to node X1:X7:X6:N002.  This node is used by M:X1:X7:X6:3.
WARNING: Less than two connections to node X1:X7:X6:N003.  This node is used by M:X1:X7:X6:4.
WARNING: Less than two connections to node X1:X7:X7:N002.  This node is used by M:X1:X7:X7:3.
WARNING: Less than two connections to node X1:X7:X7:N003.  This node is used by M:X1:X7:X7:4.
WARNING: Less than two connections to node X1:X7:X8:N002.  This node is used by M:X1:X7:X8:3.
WARNING: Less than two connections to node X1:X7:X8:N003.  This node is used by M:X1:X7:X8:4.
WARNING: Less than two connections to node X1:X7:X9:N002.  This node is used by M:X1:X7:X9:3.
WARNING: Less than two connections to node X1:X7:X9:N003.  This node is used by M:X1:X7:X9:4.
WARNING: Less than two connections to node X1:X8:X1:N002.  This node is used by M:X1:X8:X1:3.
WARNING: Less than two connections to node X1:X8:X1:N003.  This node is used by M:X1:X8:X1:4.
WARNING: Less than two connections to node X1:X8:X2:N002.  This node is used by M:X1:X8:X2:3.
WARNING: Less than two connections to node X1:X8:X2:N003.  This node is used by M:X1:X8:X2:4.
WARNING: Less than two connections to node X1:X8:X3:N002.  This node is used by M:X1:X8:X3:3.
WARNING: Less than two connections to node X1:X8:X3:N003.  This node is used by M:X1:X8:X3:4.
WARNING: Less than two connections to node X1:X8:X4:N002.  This node is used by M:X1:X8:X4:3.
WARNING: Less than two connections to node X1:X8:X4:N003.  This node is used by M:X1:X8:X4:4.
WARNING: Less than two connections to node X1:X8:X5:N002.  This node is used by M:X1:X8:X5:3.
WARNING: Less than two connections to node X1:X8:X5:N003.  This node is used by M:X1:X8:X5:4.
WARNING: Less than two connections to node X1:X8:X6:N002.  This node is used by M:X1:X8:X6:3.
WARNING: Less than two connections to node X1:X8:X6:N003.  This node is used by M:X1:X8:X6:4.
WARNING: Less than two connections to node X1:X8:X7:N002.  This node is used by M:X1:X8:X7:3.
WARNING: Less than two connections to node X1:X8:X7:N003.  This node is used by M:X1:X8:X7:4.
WARNING: Less than two connections to node X1:X8:X8:N002.  This node is used by M:X1:X8:X8:3.
WARNING: Less than two connections to node X1:X8:X8:N003.  This node is used by M:X1:X8:X8:4.
WARNING: Less than two connections to node X1:X8:X9:N002.  This node is used by M:X1:X8:X9:3.
WARNING: Less than two connections to node X1:X8:X9:N003.  This node is used by M:X1:X8:X9:4.
WARNING: Less than two connections to node X1:X9:X1:N002.  This node is used by M:X1:X9:X1:3.
WARNING: Less than two connections to node X1:X9:X1:N003.  This node is used by M:X1:X9:X1:4.
WARNING: Less than two connections to node X1:X9:X2:N002.  This node is used by M:X1:X9:X2:3.
WARNING: Less than two connections to node X1:X9:X2:N003.  This node is used by M:X1:X9:X2:4.
WARNING: Less than two connections to node X1:X9:X3:N002.  This node is used by M:X1:X9:X3:3.
WARNING: Less than two connections to node X1:X9:X3:N003.  This node is used by M:X1:X9:X3:4.
WARNING: Less than two connections to node X1:X9:X4:N002.  This node is used by M:X1:X9:X4:3.
WARNING: Less than two connections to node X1:X9:X4:N003.  This node is used by M:X1:X9:X4:4.
WARNING: Less than two connections to node X1:X9:X5:N002.  This node is used by M:X1:X9:X5:3.
WARNING: Less than two connections to node X1:X9:X5:N003.  This node is used by M:X1:X9:X5:4.
WARNING: Less than two connections to node X1:X9:X6:N002.  This node is used by M:X1:X9:X6:3.
WARNING: Less than two connections to node X1:X9:X6:N003.  This node is used by M:X1:X9:X6:4.
WARNING: Less than two connections to node X1:X9:X7:N002.  This node is used by M:X1:X9:X7:3.
WARNING: Less than two connections to node X1:X9:X7:N003.  This node is used by M:X1:X9:X7:4.
WARNING: Less than two connections to node X1:X9:X8:N002.  This node is used by M:X1:X9:X8:3.
WARNING: Less than two connections to node X1:X9:X8:N003.  This node is used by M:X1:X9:X8:4.
WARNING: Less than two connections to node X1:X9:X9:N002.  This node is used by M:X1:X9:X9:3.
WARNING: Less than two connections to node X1:X9:X9:N003.  This node is used by M:X1:X9:X9:4.
Direct Newton iteration failed to find .op point.  (Use ".option noopiter" to skip.)
Starting Gmin stepping
Gmin = 10
Gmin = 1.07374
Gmin = 0.115292
Gmin = 0.0123794
Gmin = 0.00132923
Gmin = 0.000142725
Gmin = 1.5325e-005
Gmin = 1.6455e-006
Gmin = 1.76685e-007
Gmin = 1.89714e-008
Gmin = 2.03704e-009
Gmin = 2.18725e-010
Gmin = 2.34854e-011
Gmin = 2.52173e-012
Gmin = 2.70769e-013
Gmin = 0
Gmin stepping succeeded in finding the operating point.


Date: Mon Apr 08 18:09:47 2024
Total elapsed time: 3.127 seconds.

tnom = 27
temp = 27
method = modified trap
totiter = 20848
traniter = 20417
tranpoints = 10089
accept = 10077
rejected = 12
matrix size = 740
fillins = 214
solver = Normal
Thread vector: 155.0/42.9[8] 83.6/7.3[8] 13.5/7.1[8] 3.4/6.9[1]  2592/500
Matrix Compiler1: 129.21 KB object code size  74.0/39.5/[19.4]
Matrix Compiler2: 97.31 KB object code size  16.5/14.6/[4.5]

