Circuit: * C:\Users\diana\Desktop\UniversityITMO\Digital Design\lab 1\part_1\adder_main.asc

WARNING: Node X1:X1:N002 is floating.
WARNING: Node X1:X1:N003 is floating.
WARNING: Node X1:X2:N002 is floating.
WARNING: Node X1:X2:N003 is floating.
WARNING: Node X1:X3:N002 is floating.
WARNING: Node X1:X3:N003 is floating.
WARNING: Node X1:X4:N002 is floating.
WARNING: Node X1:X4:N003 is floating.
WARNING: Node X1:X5:N002 is floating.
WARNING: Node X1:X5:N003 is floating.
WARNING: Node X1:X6:N002 is floating.
WARNING: Node X1:X6:N003 is floating.
WARNING: Node X1:X7:N002 is floating.
WARNING: Node X1:X7:N003 is floating.
WARNING: Node X1:X8:N002 is floating.
WARNING: Node X1:X8:N003 is floating.
WARNING: Node X1:X9:N002 is floating.
WARNING: Node X1:X9:N003 is floating.

WARNING: Less than two connections to node X1:X1:N002.  This node is used by M:X1:X1:3.
WARNING: Less than two connections to node X1:X1:N003.  This node is used by M:X1:X1:4.
WARNING: Less than two connections to node X1:X2:N002.  This node is used by M:X1:X2:3.
WARNING: Less than two connections to node X1:X2:N003.  This node is used by M:X1:X2:4.
WARNING: Less than two connections to node X1:X3:N002.  This node is used by M:X1:X3:3.
WARNING: Less than two connections to node X1:X3:N003.  This node is used by M:X1:X3:4.
WARNING: Less than two connections to node X1:X4:N002.  This node is used by M:X1:X4:3.
WARNING: Less than two connections to node X1:X4:N003.  This node is used by M:X1:X4:4.
WARNING: Less than two connections to node X1:X5:N002.  This node is used by M:X1:X5:3.
WARNING: Less than two connections to node X1:X5:N003.  This node is used by M:X1:X5:4.
WARNING: Less than two connections to node X1:X6:N002.  This node is used by M:X1:X6:3.
WARNING: Less than two connections to node X1:X6:N003.  This node is used by M:X1:X6:4.
WARNING: Less than two connections to node X1:X7:N002.  This node is used by M:X1:X7:3.
WARNING: Less than two connections to node X1:X7:N003.  This node is used by M:X1:X7:4.
WARNING: Less than two connections to node X1:X8:N002.  This node is used by M:X1:X8:3.
WARNING: Less than two connections to node X1:X8:N003.  This node is used by M:X1:X8:4.
WARNING: Less than two connections to node X1:X9:N002.  This node is used by M:X1:X9:3.
WARNING: Less than two connections to node X1:X9:N003.  This node is used by M:X1:X9:4.
Direct Newton iteration failed to find .op point.  (Use ".option noopiter" to skip.)
Starting Gmin stepping
Gmin = 10
Gmin = 1.07374
Gmin = 0.115292
Gmin = 0.0123794
Gmin = 0.00132923
Gmin = 0.000142725
Gmin = 1.5325e-005
Gmin = 1.6455e-006
Gmin = 1.76685e-007
Gmin = 1.89714e-008
Gmin = 2.03704e-009
Gmin = 2.18725e-010
Gmin = 2.34854e-011
Gmin = 2.52173e-012
Gmin = 2.70769e-013
Gmin = 0
Gmin stepping succeeded in finding the operating point.


Date: Mon Apr 08 15:10:13 2024
Total elapsed time: 16.282 seconds.

tnom = 27
temp = 27
method = modified trap
totiter = 401173
traniter = 400743
tranpoints = 200240
accept = 200214
rejected = 26
matrix size = 188
fillins = 32
solver = Normal
Thread vector: 32.3/25.0[3] 9.9/2.9[3] 4.6/2.5[3] 0.9/2.6[1]  2592/500
Matrix Compiler1: 29.99 KB object code size  18.1/6.7/[1.6]
Matrix Compiler2: 24.12 KB object code size  5.3/4.0/[0.7]

