Circuit: * C:\Users\diana\Desktop\UniversityITMO\Digital Design\lab 1\part_1\nor_nor_nor_main.asc

WARNING: Node X1:N002 is floating.
WARNING: Node X1:N003 is floating.
WARNING: Node X2:N002 is floating.
WARNING: Node X2:N003 is floating.
WARNING: Node X3:N002 is floating.
WARNING: Node X3:N003 is floating.
WARNING: Node X4:N002 is floating.
WARNING: Node X4:N003 is floating.
WARNING: Node X5:N002 is floating.
WARNING: Node X5:N003 is floating.
WARNING: Node X6:N002 is floating.
WARNING: Node X6:N003 is floating.
WARNING: Node X7:N002 is floating.
WARNING: Node X7:N003 is floating.
WARNING: Node X8:N002 is floating.
WARNING: Node X8:N003 is floating.
WARNING: Node X9:N002 is floating.
WARNING: Node X9:N003 is floating.
WARNING: Node X10:N002 is floating.
WARNING: Node X10:N003 is floating.
WARNING: Node X11:N002 is floating.
WARNING: Node X11:N003 is floating.

WARNING: Less than two connections to node X1:N002.  This node is used by M:X1:3.
WARNING: Less than two connections to node X1:N003.  This node is used by M:X1:4.
WARNING: Less than two connections to node X2:N002.  This node is used by M:X2:3.
WARNING: Less than two connections to node X2:N003.  This node is used by M:X2:4.
WARNING: Less than two connections to node X3:N002.  This node is used by M:X3:3.
WARNING: Less than two connections to node X3:N003.  This node is used by M:X3:4.
WARNING: Less than two connections to node X4:N002.  This node is used by M:X4:3.
WARNING: Less than two connections to node X4:N003.  This node is used by M:X4:4.
WARNING: Less than two connections to node X5:N002.  This node is used by M:X5:3.
WARNING: Less than two connections to node X5:N003.  This node is used by M:X5:4.
WARNING: Less than two connections to node X6:N002.  This node is used by M:X6:3.
WARNING: Less than two connections to node X6:N003.  This node is used by M:X6:4.
WARNING: Less than two connections to node X7:N002.  This node is used by M:X7:3.
WARNING: Less than two connections to node X7:N003.  This node is used by M:X7:4.
WARNING: Less than two connections to node X8:N002.  This node is used by M:X8:3.
WARNING: Less than two connections to node X8:N003.  This node is used by M:X8:4.
WARNING: Less than two connections to node X9:N002.  This node is used by M:X9:3.
WARNING: Less than two connections to node X9:N003.  This node is used by M:X9:4.
WARNING: Less than two connections to node X10:N002.  This node is used by M:X10:3.
WARNING: Less than two connections to node X10:N003.  This node is used by M:X10:4.
WARNING: Less than two connections to node X11:N002.  This node is used by M:X11:3.
WARNING: Less than two connections to node X11:N003.  This node is used by M:X11:4.
Direct Newton iteration failed to find .op point.  (Use ".option noopiter" to skip.)
Starting Gmin stepping
Gmin = 10
Gmin = 1.07374
Gmin = 0.115292
Gmin = 0.0123794
Gmin = 0.00132923
Gmin = 0.000142725
Gmin = 1.5325e-005
Gmin = 1.6455e-006
Gmin = 1.76685e-007
Gmin = 1.89714e-008
Gmin = 2.03704e-009
Gmin = 2.18725e-010
Gmin = 2.34854e-011
Gmin = 2.52173e-012
Gmin = 2.70769e-013
Gmin = 0
Gmin stepping succeeded in finding the operating point.


Date: Mon Apr 08 17:40:13 2024
Total elapsed time: 1.811 seconds.

tnom = 27
temp = 27
method = modified trap
totiter = 32864
traniter = 32423
tranpoints = 16116
accept = 16098
rejected = 18
matrix size = 226
fillins = 32
solver = Normal
Thread vector: 38.5/12.3[4] 8.5/2.7[4] 3.6/1.0[4] 1.1/1.4[1]  2592/500
Matrix Compiler1: 36.98 KB object code size  7.3/3.2/[1.6]
Matrix Compiler2: 28.63 KB object code size  2.5/2.6/[0.9]

