Circuit: * C:\Users\diana\Desktop\UniversityITMO\Digital Design\lab 1\part_1\nor_nor_main.asc

WARNING: Node X1:N002 is floating.
WARNING: Node X1:N003 is floating.
WARNING: Node X2:N002 is floating.
WARNING: Node X2:N003 is floating.
WARNING: Node X3:N002 is floating.
WARNING: Node X3:N003 is floating.

WARNING: Less than two connections to node X1:N002.  This node is used by M:X1:3.
WARNING: Less than two connections to node X1:N003.  This node is used by M:X1:4.
WARNING: Less than two connections to node X2:N002.  This node is used by M:X2:3.
WARNING: Less than two connections to node X2:N003.  This node is used by M:X2:4.
WARNING: Less than two connections to node X3:N002.  This node is used by M:X3:3.
WARNING: Less than two connections to node X3:N003.  This node is used by M:X3:4.
Direct Newton iteration for .op point succeeded.

Date: Mon Apr 08 17:27:14 2024
Total elapsed time: 0.680 seconds.

tnom = 27
temp = 27
method = modified trap
totiter = 32376
traniter = 32349
tranpoints = 16116
accept = 16098
rejected = 18
matrix size = 66
fillins = 16
solver = Normal
Matrix Compiler1: 9.31 KB object code size  1.2/0.6/[0.3]
Matrix Compiler2: 8.30 KB object code size  0.4/0.6/[0.4]

