Circuit: * C:\Users\diana\Desktop\UniversityITMO\Digital Design\lab 1\part_1\nor_without_main.asc

WARNING: Node X1:N002 is floating.
WARNING: Node X1:N003 is floating.

WARNING: Less than two connections to node X1:N002.  This node is used by M:X1:3.
WARNING: Less than two connections to node X1:N003.  This node is used by M:X1:4.
Direct Newton iteration for .op point succeeded.

Date: Mon Apr 08 16:11:46 2024
Total elapsed time: 0.789 seconds.

tnom = 27
temp = 27
method = modified trap
totiter = 32356
traniter = 32347
tranpoints = 16116
accept = 16098
rejected = 18
matrix size = 26
fillins = 2
solver = Normal
Matrix Compiler1: 2.65 KB object code size  1.3/0.4/[0.2]
Matrix Compiler2: 2.93 KB object code size  0.3/0.5/[0.3]

