Circuit: * C:\Users\diana\Desktop\UniversityITMO\Digital Design\lab 1\part_1\not_main.asc

WARNING: Node X1:X1:N002 is floating.
WARNING: Node X1:X1:N003 is floating.

WARNING: Less than two connections to node X1:X1:N002.  This node is used by M:X1:X1:3.
WARNING: Less than two connections to node X1:X1:N003.  This node is used by M:X1:X1:4.
Direct Newton iteration for .op point succeeded.

Date: Mon Mar 11 18:37:13 2024
Total elapsed time: 1.858 seconds.

tnom = 27
temp = 27
method = modified trap
totiter = 200242
traniter = 200236
tranpoints = 100107
accept = 100097
rejected = 10
matrix size = 24
fillins = 2
solver = Normal
Matrix Compiler1: 2.59 KB object code size  1.1/0.4/[0.1]
Matrix Compiler2: 2.76 KB object code size  0.3/0.3/[0.2]

