Circuit: * C:\Users\diana\Desktop\UniversityITMO\Digital Design\lab 1\part_1\or_main.asc

WARNING: Node X1:X1:N002 is floating.
WARNING: Node X1:X1:N003 is floating.
WARNING: Node X1:X2:X1:N002 is floating.
WARNING: Node X1:X2:X1:N003 is floating.

WARNING: Less than two connections to node X1:X1:N002.  This node is used by M:X1:X1:3.
WARNING: Less than two connections to node X1:X1:N003.  This node is used by M:X1:X1:4.
WARNING: Less than two connections to node X1:X2:X1:N002.  This node is used by M:X1:X2:X1:3.
WARNING: Less than two connections to node X1:X2:X1:N003.  This node is used by M:X1:X2:X1:4.
Direct Newton iteration for .op point succeeded.

Date: Mon Mar 11 18:39:40 2024
Total elapsed time: 3.007 seconds.

tnom = 27
temp = 27
method = modified trap
totiter = 200299
traniter = 200272
tranpoints = 100111
accept = 100100
rejected = 11
matrix size = 46
fillins = 4
solver = Normal
Matrix Compiler1: 6.04 KB object code size  0.8/0.4/[0.2]
Matrix Compiler2: 5.48 KB object code size  0.3/0.4/[0.3]

