Circuit: * C:\Users\diana\Desktop\UniversityITMO\Digital Design\lab 1\part_1\xor_main.asc

WARNING: Node X1:X1:N002 is floating.
WARNING: Node X1:X1:N003 is floating.
WARNING: Node X1:X2:N002 is floating.
WARNING: Node X1:X2:N003 is floating.
WARNING: Node X1:X3:N002 is floating.
WARNING: Node X1:X3:N003 is floating.
WARNING: Node X1:X4:N002 is floating.
WARNING: Node X1:X4:N003 is floating.
WARNING: Node X1:X5:N002 is floating.
WARNING: Node X1:X5:N003 is floating.

WARNING: Less than two connections to node X1:X1:N002.  This node is used by M:X1:X1:3.
WARNING: Less than two connections to node X1:X1:N003.  This node is used by M:X1:X1:4.
WARNING: Less than two connections to node X1:X2:N002.  This node is used by M:X1:X2:3.
WARNING: Less than two connections to node X1:X2:N003.  This node is used by M:X1:X2:4.
WARNING: Less than two connections to node X1:X3:N002.  This node is used by M:X1:X3:3.
WARNING: Less than two connections to node X1:X3:N003.  This node is used by M:X1:X3:4.
WARNING: Less than two connections to node X1:X4:N002.  This node is used by M:X1:X4:3.
WARNING: Less than two connections to node X1:X4:N003.  This node is used by M:X1:X4:4.
WARNING: Less than two connections to node X1:X5:N002.  This node is used by M:X1:X5:3.
WARNING: Less than two connections to node X1:X5:N003.  This node is used by M:X1:X5:4.
Direct Newton iteration for .op point succeeded.

Date: Mon Mar 11 18:51:19 2024
Total elapsed time: 4.357 seconds.

tnom = 27
temp = 27
method = modified trap
totiter = 200342
traniter = 200307
tranpoints = 100111
accept = 100100
rejected = 11
matrix size = 106
fillins = 30
solver = Normal
Thread vector: 32.4/17.5[2] 5.4/2.8[2] 1.8/1.5[2] 0.3/0.9[1]  2592/500
Matrix Compiler1: 15.90 KB object code size  3.6/1.9/[1.0]
Matrix Compiler2: 13.59 KB object code size  1.7/1.8/[0.5]

